<?xml version="1.0" encoding="UTF-8"?>

<!-- generated on Mon 28 Jan 2019 03:39:52 PM EST by Eclipse SUMO netedit Version 1.1.0
<configuration xmlns:xsi="http://www.w3.org/2001/XMLSchema-instance" xsi:noNamespaceSchemaLocation="http://sumo.dlr.de/xsd/netconvertConfiguration.xsd">

    <input>
        <sumo-net-file value="double.net.xml"/>
    </input>

    <output>
        <output-file value="double.net.xml"/>
    </output>

    <processing>
        <geometry.max-grade.fix value="false"/>
        <offset.disable-normalization value="true"/>
        <lefthand value="false"/>
    </processing>

    <junctions>
        <no-turnarounds value="true"/>
        <junctions.corner-detail value="5"/>
        <junctions.limit-turn-speed value="5.5"/>
        <rectangular-lane-cut value="false"/>
    </junctions>

    <pedestrian>
        <walkingareas value="false"/>
    </pedestrian>

</configuration>
-->

<net version="1.1" junctionCornerDetail="5" limitTurnSpeed="5.50" xmlns:xsi="http://www.w3.org/2001/XMLSchema-instance" xsi:noNamespaceSchemaLocation="http://sumo.dlr.de/xsd/net_file.xsd">

    <location netOffset="0.00,0.00" convBoundary="-200.00,-200.00,400.00,200.00" origBoundary="-10000000000.00,-10000000000.00,10000000000.00,10000000000.00" projParameter="!"/>

    <edge id=":gneJ0_0" function="internal">
        <lane id=":gneJ0_0_0" index="0" speed="6.51" length="9.03" shape="-8.00,13.60 -8.35,11.15 -9.40,9.40 -11.15,8.35 -13.60,8.00"/>
    </edge>
    <edge id=":gneJ0_1" function="internal">
        <lane id=":gneJ0_1_0" index="0" speed="13.89" length="27.20" shape="-8.00,13.60 -8.00,-13.60"/>
        <lane id=":gneJ0_1_1" index="1" speed="13.89" length="27.20" shape="-4.80,13.60 -4.80,-13.60"/>
        <lane id=":gneJ0_1_2" index="2" speed="13.89" length="27.20" shape="-1.60,13.60 -1.60,-13.60"/>
    </edge>
    <edge id=":gneJ0_4" function="internal">
        <lane id=":gneJ0_4_0" index="0" speed="10.36" length="7.98" shape="-1.60,13.60 -0.65,6.95 -0.00,5.87"/>
    </edge>
    <edge id=":gneJ0_20" function="internal">
        <lane id=":gneJ0_20_0" index="0" speed="10.36" length="16.53" shape="-0.00,5.87 2.20,2.20 6.95,-0.65 13.60,-1.60"/>
    </edge>
    <edge id=":gneJ0_5" function="internal">
        <lane id=":gneJ0_5_0" index="0" speed="6.51" length="9.03" shape="13.60,8.00 11.15,8.35 9.40,9.40 8.35,11.15 8.00,13.60"/>
    </edge>
    <edge id=":gneJ0_6" function="internal">
        <lane id=":gneJ0_6_0" index="0" speed="13.89" length="27.20" shape="13.60,8.00 -13.60,8.00"/>
        <lane id=":gneJ0_6_1" index="1" speed="13.89" length="27.20" shape="13.60,4.80 -13.60,4.80"/>
        <lane id=":gneJ0_6_2" index="2" speed="13.89" length="27.20" shape="13.60,1.60 -13.60,1.60"/>
    </edge>
    <edge id=":gneJ0_9" function="internal">
        <lane id=":gneJ0_9_0" index="0" speed="10.36" length="7.98" shape="13.60,1.60 6.95,0.65 5.87,0.00"/>
    </edge>
    <edge id=":gneJ0_21" function="internal">
        <lane id=":gneJ0_21_0" index="0" speed="10.36" length="16.53" shape="5.87,0.00 2.20,-2.20 -0.65,-6.95 -1.60,-13.60"/>
    </edge>
    <edge id=":gneJ0_10" function="internal">
        <lane id=":gneJ0_10_0" index="0" speed="6.51" length="9.03" shape="8.00,-13.60 8.35,-11.15 9.40,-9.40 11.15,-8.35 13.60,-8.00"/>
    </edge>
    <edge id=":gneJ0_11" function="internal">
        <lane id=":gneJ0_11_0" index="0" speed="13.89" length="27.20" shape="8.00,-13.60 8.00,13.60"/>
        <lane id=":gneJ0_11_1" index="1" speed="13.89" length="27.20" shape="4.80,-13.60 4.80,13.60"/>
        <lane id=":gneJ0_11_2" index="2" speed="13.89" length="27.20" shape="1.60,-13.60 1.60,13.60"/>
    </edge>
    <edge id=":gneJ0_14" function="internal">
        <lane id=":gneJ0_14_0" index="0" speed="10.36" length="7.98" shape="1.60,-13.60 0.65,-6.95 0.00,-5.87"/>
    </edge>
    <edge id=":gneJ0_22" function="internal">
        <lane id=":gneJ0_22_0" index="0" speed="10.36" length="16.53" shape="0.00,-5.87 -2.20,-2.20 -6.95,0.65 -13.60,1.60"/>
    </edge>
    <edge id=":gneJ0_15" function="internal">
        <lane id=":gneJ0_15_0" index="0" speed="6.51" length="9.03" shape="-13.60,-8.00 -11.15,-8.35 -9.40,-9.40 -8.35,-11.15 -8.00,-13.60"/>
    </edge>
    <edge id=":gneJ0_16" function="internal">
        <lane id=":gneJ0_16_0" index="0" speed="13.89" length="27.20" shape="-13.60,-8.00 13.60,-8.00"/>
        <lane id=":gneJ0_16_1" index="1" speed="13.89" length="27.20" shape="-13.60,-4.80 13.60,-4.80"/>
        <lane id=":gneJ0_16_2" index="2" speed="13.89" length="27.20" shape="-13.60,-1.60 13.60,-1.60"/>
    </edge>
    <edge id=":gneJ0_19" function="internal">
        <lane id=":gneJ0_19_0" index="0" speed="10.36" length="7.98" shape="-13.60,-1.60 -6.95,-0.65 -5.87,-0.00"/>
    </edge>
    <edge id=":gneJ0_23" function="internal">
        <lane id=":gneJ0_23_0" index="0" speed="10.36" length="16.53" shape="-5.87,-0.00 -2.20,2.20 0.65,6.95 1.60,13.60"/>
    </edge>
    <edge id=":gneJ1_0" function="internal">
        <lane id=":gneJ1_0_0" index="0" speed="13.89" length="0.10" shape="-100.00,8.00 -100.00,8.00"/>
        <lane id=":gneJ1_0_1" index="1" speed="13.89" length="0.10" shape="-100.00,4.80 -100.00,4.80"/>
        <lane id=":gneJ1_0_2" index="2" speed="13.89" length="0.10" shape="-100.00,1.60 -100.00,1.60"/>
    </edge>
    <edge id=":gneJ1_3" function="internal">
        <lane id=":gneJ1_3_0" index="0" speed="13.89" length="0.10" shape="-100.00,-8.00 -100.00,-8.00"/>
        <lane id=":gneJ1_3_1" index="1" speed="13.89" length="0.10" shape="-100.00,-4.80 -100.00,-4.80"/>
        <lane id=":gneJ1_3_2" index="2" speed="13.89" length="0.10" shape="-100.00,-1.60 -100.00,-1.60"/>
    </edge>
    <edge id=":gneJ10_0" function="internal">
        <lane id=":gneJ10_0_0" index="0" speed="13.89" length="0.10" shape="192.00,100.00 192.00,100.00"/>
        <lane id=":gneJ10_0_1" index="1" speed="13.89" length="0.10" shape="195.20,100.00 195.20,100.00"/>
        <lane id=":gneJ10_0_2" index="2" speed="13.89" length="0.10" shape="198.40,100.00 198.40,100.00"/>
    </edge>
    <edge id=":gneJ10_3" function="internal">
        <lane id=":gneJ10_3_0" index="0" speed="13.89" length="0.10" shape="208.00,100.00 208.00,100.00"/>
        <lane id=":gneJ10_3_1" index="1" speed="13.89" length="0.10" shape="204.80,100.00 204.80,100.00"/>
        <lane id=":gneJ10_3_2" index="2" speed="13.89" length="0.10" shape="201.60,100.00 201.60,100.00"/>
    </edge>
    <edge id=":gneJ2_0" function="internal">
        <lane id=":gneJ2_0_0" index="0" speed="13.89" length="0.10" shape="100.00,8.00 100.00,8.00"/>
        <lane id=":gneJ2_0_1" index="1" speed="13.89" length="0.10" shape="100.00,4.80 100.00,4.80"/>
        <lane id=":gneJ2_0_2" index="2" speed="13.89" length="0.10" shape="100.00,1.60 100.00,1.60"/>
    </edge>
    <edge id=":gneJ2_3" function="internal">
        <lane id=":gneJ2_3_0" index="0" speed="13.89" length="0.10" shape="100.00,-8.00 100.00,-8.00"/>
        <lane id=":gneJ2_3_1" index="1" speed="13.89" length="0.10" shape="100.00,-4.80 100.00,-4.80"/>
        <lane id=":gneJ2_3_2" index="2" speed="13.89" length="0.10" shape="100.00,-1.60 100.00,-1.60"/>
    </edge>
    <edge id=":gneJ4_0" function="internal">
        <lane id=":gneJ4_0_0" index="0" speed="13.89" length="0.10" shape="300.00,8.00 300.00,8.00"/>
        <lane id=":gneJ4_0_1" index="1" speed="13.89" length="0.10" shape="300.00,4.80 300.00,4.80"/>
        <lane id=":gneJ4_0_2" index="2" speed="13.89" length="0.10" shape="300.00,1.60 300.00,1.60"/>
    </edge>
    <edge id=":gneJ4_3" function="internal">
        <lane id=":gneJ4_3_0" index="0" speed="13.89" length="0.10" shape="300.00,-8.00 300.00,-8.00"/>
        <lane id=":gneJ4_3_1" index="1" speed="13.89" length="0.10" shape="300.00,-4.80 300.00,-4.80"/>
        <lane id=":gneJ4_3_2" index="2" speed="13.89" length="0.10" shape="300.00,-1.60 300.00,-1.60"/>
    </edge>
    <edge id=":gneJ6_0" function="internal">
        <lane id=":gneJ6_0_0" index="0" speed="6.51" length="9.03" shape="192.00,13.60 191.65,11.15 190.60,9.40 188.85,8.35 186.40,8.00"/>
    </edge>
    <edge id=":gneJ6_1" function="internal">
        <lane id=":gneJ6_1_0" index="0" speed="13.89" length="27.20" shape="192.00,13.60 192.00,-13.60"/>
        <lane id=":gneJ6_1_1" index="1" speed="13.89" length="27.20" shape="195.20,13.60 195.20,-13.60"/>
        <lane id=":gneJ6_1_2" index="2" speed="13.89" length="27.20" shape="198.40,13.60 198.40,-13.60"/>
    </edge>
    <edge id=":gneJ6_4" function="internal">
        <lane id=":gneJ6_4_0" index="0" speed="10.36" length="7.98" shape="198.40,13.60 199.35,6.95 200.00,5.87"/>
    </edge>
    <edge id=":gneJ6_20" function="internal">
        <lane id=":gneJ6_20_0" index="0" speed="10.36" length="16.53" shape="200.00,5.87 202.20,2.20 206.95,-0.65 213.60,-1.60"/>
    </edge>
    <edge id=":gneJ6_5" function="internal">
        <lane id=":gneJ6_5_0" index="0" speed="6.51" length="9.03" shape="213.60,8.00 211.15,8.35 209.40,9.40 208.35,11.15 208.00,13.60"/>
    </edge>
    <edge id=":gneJ6_6" function="internal">
        <lane id=":gneJ6_6_0" index="0" speed="13.89" length="27.20" shape="213.60,8.00 186.40,8.00"/>
        <lane id=":gneJ6_6_1" index="1" speed="13.89" length="27.20" shape="213.60,4.80 186.40,4.80"/>
        <lane id=":gneJ6_6_2" index="2" speed="13.89" length="27.20" shape="213.60,1.60 186.40,1.60"/>
    </edge>
    <edge id=":gneJ6_9" function="internal">
        <lane id=":gneJ6_9_0" index="0" speed="10.36" length="7.98" shape="213.60,1.60 206.95,0.65 205.87,-0.00"/>
    </edge>
    <edge id=":gneJ6_21" function="internal">
        <lane id=":gneJ6_21_0" index="0" speed="10.36" length="16.53" shape="205.87,-0.00 202.20,-2.20 199.35,-6.95 198.40,-13.60"/>
    </edge>
    <edge id=":gneJ6_10" function="internal">
        <lane id=":gneJ6_10_0" index="0" speed="6.51" length="9.03" shape="208.00,-13.60 208.35,-11.15 209.40,-9.40 211.15,-8.35 213.60,-8.00"/>
    </edge>
    <edge id=":gneJ6_11" function="internal">
        <lane id=":gneJ6_11_0" index="0" speed="13.89" length="27.20" shape="208.00,-13.60 208.00,13.60"/>
        <lane id=":gneJ6_11_1" index="1" speed="13.89" length="27.20" shape="204.80,-13.60 204.80,13.60"/>
        <lane id=":gneJ6_11_2" index="2" speed="13.89" length="27.20" shape="201.60,-13.60 201.60,13.60"/>
    </edge>
    <edge id=":gneJ6_14" function="internal">
        <lane id=":gneJ6_14_0" index="0" speed="10.36" length="7.98" shape="201.60,-13.60 200.65,-6.95 200.00,-5.87"/>
    </edge>
    <edge id=":gneJ6_22" function="internal">
        <lane id=":gneJ6_22_0" index="0" speed="10.36" length="16.53" shape="200.00,-5.87 197.80,-2.20 193.05,0.65 186.40,1.60"/>
    </edge>
    <edge id=":gneJ6_15" function="internal">
        <lane id=":gneJ6_15_0" index="0" speed="6.51" length="9.03" shape="186.40,-8.00 188.85,-8.35 190.60,-9.40 191.65,-11.15 192.00,-13.60"/>
    </edge>
    <edge id=":gneJ6_16" function="internal">
        <lane id=":gneJ6_16_0" index="0" speed="13.89" length="27.20" shape="186.40,-8.00 213.60,-8.00"/>
        <lane id=":gneJ6_16_1" index="1" speed="13.89" length="27.20" shape="186.40,-4.80 213.60,-4.80"/>
        <lane id=":gneJ6_16_2" index="2" speed="13.89" length="27.20" shape="186.40,-1.60 213.60,-1.60"/>
    </edge>
    <edge id=":gneJ6_19" function="internal">
        <lane id=":gneJ6_19_0" index="0" speed="10.36" length="7.98" shape="186.40,-1.60 193.05,-0.65 194.13,0.00"/>
    </edge>
    <edge id=":gneJ6_23" function="internal">
        <lane id=":gneJ6_23_0" index="0" speed="10.36" length="16.53" shape="194.13,0.00 197.80,2.20 200.65,6.95 201.60,13.60"/>
    </edge>
    <edge id=":gneJ7_0" function="internal">
        <lane id=":gneJ7_0_0" index="0" speed="13.89" length="0.10" shape="-8.00,100.00 -8.00,100.00"/>
        <lane id=":gneJ7_0_1" index="1" speed="13.89" length="0.10" shape="-4.80,100.00 -4.80,100.00"/>
        <lane id=":gneJ7_0_2" index="2" speed="13.89" length="0.10" shape="-1.60,100.00 -1.60,100.00"/>
    </edge>
    <edge id=":gneJ7_3" function="internal">
        <lane id=":gneJ7_3_0" index="0" speed="13.89" length="0.10" shape="8.00,100.00 8.00,100.00"/>
        <lane id=":gneJ7_3_1" index="1" speed="13.89" length="0.10" shape="4.80,100.00 4.80,100.00"/>
        <lane id=":gneJ7_3_2" index="2" speed="13.89" length="0.10" shape="1.60,100.00 1.60,100.00"/>
    </edge>
    <edge id=":gneJ8_0" function="internal">
        <lane id=":gneJ8_0_0" index="0" speed="13.89" length="0.10" shape="-8.00,-100.00 -8.00,-100.00"/>
        <lane id=":gneJ8_0_1" index="1" speed="13.89" length="0.10" shape="-4.80,-100.00 -4.80,-100.00"/>
        <lane id=":gneJ8_0_2" index="2" speed="13.89" length="0.10" shape="-1.60,-100.00 -1.60,-100.00"/>
    </edge>
    <edge id=":gneJ8_3" function="internal">
        <lane id=":gneJ8_3_0" index="0" speed="13.89" length="0.10" shape="8.00,-100.00 8.00,-100.00"/>
        <lane id=":gneJ8_3_1" index="1" speed="13.89" length="0.10" shape="4.80,-100.00 4.80,-100.00"/>
        <lane id=":gneJ8_3_2" index="2" speed="13.89" length="0.10" shape="1.60,-100.00 1.60,-100.00"/>
    </edge>
    <edge id=":gneJ9_0" function="internal">
        <lane id=":gneJ9_0_0" index="0" speed="13.89" length="0.10" shape="192.00,-100.00 192.00,-100.00"/>
        <lane id=":gneJ9_0_1" index="1" speed="13.89" length="0.10" shape="195.20,-100.00 195.20,-100.00"/>
        <lane id=":gneJ9_0_2" index="2" speed="13.89" length="0.10" shape="198.40,-100.00 198.40,-100.00"/>
    </edge>
    <edge id=":gneJ9_3" function="internal">
        <lane id=":gneJ9_3_0" index="0" speed="13.89" length="0.10" shape="208.00,-100.00 208.00,-100.00"/>
        <lane id=":gneJ9_3_1" index="1" speed="13.89" length="0.10" shape="204.80,-100.00 204.80,-100.00"/>
        <lane id=":gneJ9_3_2" index="2" speed="13.89" length="0.10" shape="201.60,-100.00 201.60,-100.00"/>
    </edge>

    <edge id="-gneE0" from="gneJ1" to="gneJ0" priority="-1">
        <lane id="-gneE0_0" index="0" speed="13.89" length="86.40" shape="-100.00,-8.00 -13.60,-8.00"/>
        <lane id="-gneE0_1" index="1" speed="13.89" length="86.40" shape="-100.00,-4.80 -13.60,-4.80"/>
        <lane id="-gneE0_2" index="2" speed="13.89" length="86.40" shape="-100.00,-1.60 -13.60,-1.60"/>
    </edge>
    <edge id="-gneE1" from="gneJ0" to="gneJ2" priority="-1">
        <lane id="-gneE1_0" index="0" speed="13.89" length="86.40" shape="13.60,-8.00 100.00,-8.00"/>
        <lane id="-gneE1_1" index="1" speed="13.89" length="86.40" shape="13.60,-4.80 100.00,-4.80"/>
        <lane id="-gneE1_2" index="2" speed="13.89" length="86.40" shape="13.60,-1.60 100.00,-1.60"/>
    </edge>
    <edge id="-gneE10" from="gneJ12" to="gneJ8" priority="-1">
        <lane id="-gneE10_0" index="0" speed="13.89" length="100.00" shape="8.00,-200.00 8.00,-100.00"/>
        <lane id="-gneE10_1" index="1" speed="13.89" length="100.00" shape="4.80,-200.00 4.80,-100.00"/>
        <lane id="-gneE10_2" index="2" speed="13.89" length="100.00" shape="1.60,-200.00 1.60,-100.00"/>
    </edge>
    <edge id="-gneE11" from="gneJ13" to="gneJ9" priority="-1">
        <lane id="-gneE11_0" index="0" speed="13.89" length="100.00" shape="208.00,-200.00 208.00,-100.00"/>
        <lane id="-gneE11_1" index="1" speed="13.89" length="100.00" shape="204.80,-200.00 204.80,-100.00"/>
        <lane id="-gneE11_2" index="2" speed="13.89" length="100.00" shape="201.60,-200.00 201.60,-100.00"/>
    </edge>
    <edge id="-gneE12" from="gneJ14" to="gneJ4" priority="-1">
        <lane id="-gneE12_0" index="0" speed="13.89" length="100.00" shape="400.00,8.00 300.00,8.00"/>
        <lane id="-gneE12_1" index="1" speed="13.89" length="100.00" shape="400.00,4.80 300.00,4.80"/>
        <lane id="-gneE12_2" index="2" speed="13.89" length="100.00" shape="400.00,1.60 300.00,1.60"/>
    </edge>
    <edge id="-gneE13" from="gneJ15" to="gneJ10" priority="-1">
        <lane id="-gneE13_0" index="0" speed="13.89" length="100.00" shape="192.00,200.00 192.00,100.00"/>
        <lane id="-gneE13_1" index="1" speed="13.89" length="100.00" shape="195.20,200.00 195.20,100.00"/>
        <lane id="-gneE13_2" index="2" speed="13.89" length="100.00" shape="198.40,200.00 198.40,100.00"/>
    </edge>
    <edge id="-gneE14" from="gneJ16" to="gneJ7" priority="-1">
        <lane id="-gneE14_0" index="0" speed="13.89" length="100.00" shape="-8.00,200.00 -8.00,100.00"/>
        <lane id="-gneE14_1" index="1" speed="13.89" length="100.00" shape="-4.80,200.00 -4.80,100.00"/>
        <lane id="-gneE14_2" index="2" speed="13.89" length="100.00" shape="-1.60,200.00 -1.60,100.00"/>
    </edge>
    <edge id="-gneE15" from="gneJ6" to="gneJ4" priority="-1">
        <lane id="-gneE15_0" index="0" speed="13.89" length="86.40" shape="213.60,-8.00 300.00,-8.00"/>
        <lane id="-gneE15_1" index="1" speed="13.89" length="86.40" shape="213.60,-4.80 300.00,-4.80"/>
        <lane id="-gneE15_2" index="2" speed="13.89" length="86.40" shape="213.60,-1.60 300.00,-1.60"/>
    </edge>
    <edge id="-gneE16" from="gneJ6" to="gneJ9" priority="-1">
        <lane id="-gneE16_0" index="0" speed="13.89" length="86.40" shape="192.00,-13.60 192.00,-100.00"/>
        <lane id="-gneE16_1" index="1" speed="13.89" length="86.40" shape="195.20,-13.60 195.20,-100.00"/>
        <lane id="-gneE16_2" index="2" speed="13.89" length="86.40" shape="198.40,-13.60 198.40,-100.00"/>
    </edge>
    <edge id="-gneE17" from="gneJ6" to="gneJ2" priority="-1">
        <lane id="-gneE17_0" index="0" speed="13.89" length="86.40" shape="186.40,8.00 100.00,8.00"/>
        <lane id="-gneE17_1" index="1" speed="13.89" length="86.40" shape="186.40,4.80 100.00,4.80"/>
        <lane id="-gneE17_2" index="2" speed="13.89" length="86.40" shape="186.40,1.60 100.00,1.60"/>
    </edge>
    <edge id="-gneE18" from="gneJ6" to="gneJ10" priority="-1">
        <lane id="-gneE18_0" index="0" speed="13.89" length="86.40" shape="208.00,13.60 208.00,100.00"/>
        <lane id="-gneE18_1" index="1" speed="13.89" length="86.40" shape="204.80,13.60 204.80,100.00"/>
        <lane id="-gneE18_2" index="2" speed="13.89" length="86.40" shape="201.60,13.60 201.60,100.00"/>
    </edge>
    <edge id="-gneE5" from="gneJ7" to="gneJ0" priority="-1">
        <lane id="-gneE5_0" index="0" speed="13.89" length="86.40" shape="-8.00,100.00 -8.00,13.60"/>
        <lane id="-gneE5_1" index="1" speed="13.89" length="86.40" shape="-4.80,100.00 -4.80,13.60"/>
        <lane id="-gneE5_2" index="2" speed="13.89" length="86.40" shape="-1.60,100.00 -1.60,13.60"/>
    </edge>
    <edge id="-gneE6" from="gneJ8" to="gneJ0" priority="-1">
        <lane id="-gneE6_0" index="0" speed="13.89" length="86.40" shape="8.00,-100.00 8.00,-13.60"/>
        <lane id="-gneE6_1" index="1" speed="13.89" length="86.40" shape="4.80,-100.00 4.80,-13.60"/>
        <lane id="-gneE6_2" index="2" speed="13.89" length="86.40" shape="1.60,-100.00 1.60,-13.60"/>
    </edge>
    <edge id="-gneE9" from="gneJ11" to="gneJ1" priority="-1">
        <lane id="-gneE9_0" index="0" speed="13.89" length="100.00" shape="-200.00,-8.00 -100.00,-8.00"/>
        <lane id="-gneE9_1" index="1" speed="13.89" length="100.00" shape="-200.00,-4.80 -100.00,-4.80"/>
        <lane id="-gneE9_2" index="2" speed="13.89" length="100.00" shape="-200.00,-1.60 -100.00,-1.60"/>
    </edge>
    <edge id="gneE0" from="gneJ0" to="gneJ1" priority="-1">
        <lane id="gneE0_0" index="0" speed="13.89" length="86.40" shape="-13.60,8.00 -100.00,8.00"/>
        <lane id="gneE0_1" index="1" speed="13.89" length="86.40" shape="-13.60,4.80 -100.00,4.80"/>
        <lane id="gneE0_2" index="2" speed="13.89" length="86.40" shape="-13.60,1.60 -100.00,1.60"/>
    </edge>
    <edge id="gneE1" from="gneJ2" to="gneJ0" priority="-1">
        <lane id="gneE1_0" index="0" speed="13.89" length="86.40" shape="100.00,8.00 13.60,8.00"/>
        <lane id="gneE1_1" index="1" speed="13.89" length="86.40" shape="100.00,4.80 13.60,4.80"/>
        <lane id="gneE1_2" index="2" speed="13.89" length="86.40" shape="100.00,1.60 13.60,1.60"/>
    </edge>
    <edge id="gneE10" from="gneJ8" to="gneJ12" priority="-1">
        <lane id="gneE10_0" index="0" speed="13.89" length="100.00" shape="-8.00,-100.00 -8.00,-200.00"/>
        <lane id="gneE10_1" index="1" speed="13.89" length="100.00" shape="-4.80,-100.00 -4.80,-200.00"/>
        <lane id="gneE10_2" index="2" speed="13.89" length="100.00" shape="-1.60,-100.00 -1.60,-200.00"/>
    </edge>
    <edge id="gneE11" from="gneJ9" to="gneJ13" priority="-1">
        <lane id="gneE11_0" index="0" speed="13.89" length="100.00" shape="192.00,-100.00 192.00,-200.00"/>
        <lane id="gneE11_1" index="1" speed="13.89" length="100.00" shape="195.20,-100.00 195.20,-200.00"/>
        <lane id="gneE11_2" index="2" speed="13.89" length="100.00" shape="198.40,-100.00 198.40,-200.00"/>
    </edge>
    <edge id="gneE12" from="gneJ4" to="gneJ14" priority="-1">
        <lane id="gneE12_0" index="0" speed="13.89" length="100.00" shape="300.00,-8.00 400.00,-8.00"/>
        <lane id="gneE12_1" index="1" speed="13.89" length="100.00" shape="300.00,-4.80 400.00,-4.80"/>
        <lane id="gneE12_2" index="2" speed="13.89" length="100.00" shape="300.00,-1.60 400.00,-1.60"/>
    </edge>
    <edge id="gneE13" from="gneJ10" to="gneJ15" priority="-1">
        <lane id="gneE13_0" index="0" speed="13.89" length="100.00" shape="208.00,100.00 208.00,200.00"/>
        <lane id="gneE13_1" index="1" speed="13.89" length="100.00" shape="204.80,100.00 204.80,200.00"/>
        <lane id="gneE13_2" index="2" speed="13.89" length="100.00" shape="201.60,100.00 201.60,200.00"/>
    </edge>
    <edge id="gneE14" from="gneJ7" to="gneJ16" priority="-1">
        <lane id="gneE14_0" index="0" speed="13.89" length="100.00" shape="8.00,100.00 8.00,200.00"/>
        <lane id="gneE14_1" index="1" speed="13.89" length="100.00" shape="4.80,100.00 4.80,200.00"/>
        <lane id="gneE14_2" index="2" speed="13.89" length="100.00" shape="1.60,100.00 1.60,200.00"/>
    </edge>
    <edge id="gneE15" from="gneJ4" to="gneJ6" priority="-1">
        <lane id="gneE15_0" index="0" speed="13.89" length="86.40" shape="300.00,8.00 213.60,8.00"/>
        <lane id="gneE15_1" index="1" speed="13.89" length="86.40" shape="300.00,4.80 213.60,4.80"/>
        <lane id="gneE15_2" index="2" speed="13.89" length="86.40" shape="300.00,1.60 213.60,1.60"/>
    </edge>
    <edge id="gneE16" from="gneJ9" to="gneJ6" priority="-1">
        <lane id="gneE16_0" index="0" speed="13.89" length="86.40" shape="208.00,-100.00 208.00,-13.60"/>
        <lane id="gneE16_1" index="1" speed="13.89" length="86.40" shape="204.80,-100.00 204.80,-13.60"/>
        <lane id="gneE16_2" index="2" speed="13.89" length="86.40" shape="201.60,-100.00 201.60,-13.60"/>
    </edge>
    <edge id="gneE17" from="gneJ2" to="gneJ6" priority="-1">
        <lane id="gneE17_0" index="0" speed="13.89" length="86.40" shape="100.00,-8.00 186.40,-8.00"/>
        <lane id="gneE17_1" index="1" speed="13.89" length="86.40" shape="100.00,-4.80 186.40,-4.80"/>
        <lane id="gneE17_2" index="2" speed="13.89" length="86.40" shape="100.00,-1.60 186.40,-1.60"/>
    </edge>
    <edge id="gneE18" from="gneJ10" to="gneJ6" priority="-1">
        <lane id="gneE18_0" index="0" speed="13.89" length="86.40" shape="192.00,100.00 192.00,13.60"/>
        <lane id="gneE18_1" index="1" speed="13.89" length="86.40" shape="195.20,100.00 195.20,13.60"/>
        <lane id="gneE18_2" index="2" speed="13.89" length="86.40" shape="198.40,100.00 198.40,13.60"/>
    </edge>
    <edge id="gneE5" from="gneJ0" to="gneJ7" priority="-1">
        <lane id="gneE5_0" index="0" speed="13.89" length="86.40" shape="8.00,13.60 8.00,100.00"/>
        <lane id="gneE5_1" index="1" speed="13.89" length="86.40" shape="4.80,13.60 4.80,100.00"/>
        <lane id="gneE5_2" index="2" speed="13.89" length="86.40" shape="1.60,13.60 1.60,100.00"/>
    </edge>
    <edge id="gneE6" from="gneJ0" to="gneJ8" priority="-1">
        <lane id="gneE6_0" index="0" speed="13.89" length="86.40" shape="-8.00,-13.60 -8.00,-100.00"/>
        <lane id="gneE6_1" index="1" speed="13.89" length="86.40" shape="-4.80,-13.60 -4.80,-100.00"/>
        <lane id="gneE6_2" index="2" speed="13.89" length="86.40" shape="-1.60,-13.60 -1.60,-100.00"/>
    </edge>
    <edge id="gneE9" from="gneJ1" to="gneJ11" priority="-1">
        <lane id="gneE9_0" index="0" speed="13.89" length="100.00" shape="-100.00,8.00 -200.00,8.00"/>
        <lane id="gneE9_1" index="1" speed="13.89" length="100.00" shape="-100.00,4.80 -200.00,4.80"/>
        <lane id="gneE9_2" index="2" speed="13.89" length="100.00" shape="-100.00,1.60 -200.00,1.60"/>
    </edge>

    <tlLogic id="gneJ0" type="static" programID="0" offset="0">
        <phase duration="42" state="GGGGgrrrrrGGGGgrrrrr"/>
        <phase duration="3"  state="yyyyyrrrrryyyyyrrrrr"/>
        <phase duration="2.00"  state="rrrrGrrrrrrrrrGrrrrr"/>
        <phase duration="2.00"  state="rrrrrrrrrrrrrrrrrrrr"/>
        <phase duration="42" state="rrrrrGGGGgrrrrrGGGGg"/>
        <phase duration="3"  state="rrrrryyyyyrrrrryyyyy"/>
        <phase duration="2.00"  state="rrrrrrrrrGrrrrrrrrrG"/>
    </tlLogic>
    <tlLogic id="gneJ6" type="static" programID="0" offset="0">
        <phase duration="42" state="GGGGgrrrrrGGGGgrrrrr"/>
        <phase duration="3"  state="yyyyyrrrrryyyyyrrrrr"/>
        <phase duration="2.00"  state="rrrrGrrrrrrrrrGrrrrr"/>
        <phase duration="42" state="rrrrrGGGGgrrrrrGGGGg"/>
        <phase duration="3"  state="rrrrryyyyyrrrrryyyyy"/>
        <phase duration="2.00"  state="rrrrrrrrrGrrrrrrrrrG"/>
    </tlLogic>

    <junction id="gneJ0" type="traffic_light" x="0.00" y="0.00" incLanes="-gneE5_0 -gneE5_1 -gneE5_2 gneE1_0 gneE1_1 gneE1_2 -gneE6_0 -gneE6_1 -gneE6_2 -gneE0_0 -gneE0_1 -gneE0_2" intLanes=":gneJ0_0_0 :gneJ0_1_0 :gneJ0_1_1 :gneJ0_1_2 :gneJ0_20_0 :gneJ0_5_0 :gneJ0_6_0 :gneJ0_6_1 :gneJ0_6_2 :gneJ0_21_0 :gneJ0_10_0 :gneJ0_11_0 :gneJ0_11_1 :gneJ0_11_2 :gneJ0_22_0 :gneJ0_15_0 :gneJ0_16_0 :gneJ0_16_1 :gneJ0_16_2 :gneJ0_23_0" shape="-9.60,13.60 9.60,13.60 10.04,11.38 10.60,10.60 11.38,10.04 12.38,9.71 13.60,9.60 13.60,-9.60 11.38,-10.04 10.60,-10.60 10.04,-11.38 9.71,-12.38 9.60,-13.60 -9.60,-13.60 -10.04,-11.38 -10.60,-10.60 -11.38,-10.04 -12.38,-9.71 -13.60,-9.60 -13.60,9.60 -11.38,10.04 -10.60,10.60 -10.04,11.38 -9.71,12.38">
        <request index="0"  response="00000000000000000000" foes="00000000000111000000" cont="0"/>
        <request index="1"  response="10000000001000000000" foes="11111100001111000000" cont="0"/>
        <request index="2"  response="10000000001000000000" foes="11111100001111000000" cont="0"/>
        <request index="3"  response="10000000001000000000" foes="11111100001111000000" cont="0"/>
        <request index="4"  response="10000011101000000000" foes="11110011101111000000" cont="1"/>
        <request index="5"  response="00000011100000000000" foes="00000011100000000000" cont="0"/>
        <request index="6"  response="00000111100000011111" foes="10000111100000011111" cont="0"/>
        <request index="7"  response="00000111100000011111" foes="10000111100000011111" cont="0"/>
        <request index="8"  response="00000111100000011111" foes="10000111100000011111" cont="0"/>
        <request index="9"  response="01110111100000011110" foes="01110111100000011110" cont="1"/>
        <request index="10" response="00000000000000000000" foes="01110000000000000000" cont="0"/>
        <request index="11" response="10000000001000000000" foes="11110000001111110000" cont="0"/>
        <request index="12" response="10000000001000000000" foes="11110000001111110000" cont="0"/>
        <request index="13" response="10000000001000000000" foes="11110000001111110000" cont="0"/>
        <request index="14" response="10000000001000001110" foes="11110000001111001110" cont="1"/>
        <request index="15" response="00000000000000001110" foes="00000000000000001110" cont="0"/>
        <request index="16" response="00000111110000011110" foes="00000111111000011110" cont="0"/>
        <request index="17" response="00000111110000011110" foes="00000111111000011110" cont="0"/>
        <request index="18" response="00000111110000011110" foes="00000111111000011110" cont="0"/>
        <request index="19" response="00000111100111011110" foes="00000111100111011110" cont="1"/>
    </junction>
    <junction id="gneJ1" type="priority" x="-100.00" y="0.00" incLanes="gneE0_0 gneE0_1 gneE0_2 -gneE9_0 -gneE9_1 -gneE9_2" intLanes=":gneJ1_0_0 :gneJ1_0_1 :gneJ1_0_2 :gneJ1_3_0 :gneJ1_3_1 :gneJ1_3_2" shape="-100.00,9.60 -100.00,-9.60 -100.00,9.60">
        <request index="0" response="000000" foes="000000" cont="0"/>
        <request index="1" response="000000" foes="000000" cont="0"/>
        <request index="2" response="000000" foes="000000" cont="0"/>
        <request index="3" response="000000" foes="000000" cont="0"/>
        <request index="4" response="000000" foes="000000" cont="0"/>
        <request index="5" response="000000" foes="000000" cont="0"/>
    </junction>
    <junction id="gneJ10" type="priority" x="200.00" y="100.00" incLanes="-gneE13_0 -gneE13_1 -gneE13_2 -gneE18_0 -gneE18_1 -gneE18_2" intLanes=":gneJ10_0_0 :gneJ10_0_1 :gneJ10_0_2 :gneJ10_3_0 :gneJ10_3_1 :gneJ10_3_2" shape="190.40,100.00 209.60,100.00 190.40,100.00">
        <request index="0" response="000000" foes="000000" cont="0"/>
        <request index="1" response="000000" foes="000000" cont="0"/>
        <request index="2" response="000000" foes="000000" cont="0"/>
        <request index="3" response="000000" foes="000000" cont="0"/>
        <request index="4" response="000000" foes="000000" cont="0"/>
        <request index="5" response="000000" foes="000000" cont="0"/>
    </junction>
    <junction id="gneJ11" type="dead_end" x="-200.00" y="0.00" incLanes="gneE9_0 gneE9_1 gneE9_2" intLanes="" shape="-200.00,0.00 -200.00,9.60 -200.00,0.00"/>